<flows><flow generating_config="config_FlowDroid_aliasalgolazy.xml">
            <reference type="to">
                <statement>
                    <statementfull>$r13 = virtualinvoke $r12.&lt;java.net.HttpURLConnection: java.io.InputStream getInputStream()&gt;()</statementfull>
                    <statementgeneric>java.net.HttpURLConnection: java.io.InputStream getInputStream()</statementgeneric>
                </statement>
                <method>&lt;com.github.yeriomin.yalpstore.task.DownloadTask: com.github.yeriomin.yalpstore.task.DownloadTask$DownloadException doInBackground$52e943ba()&gt;</method>
                <classname>com.github.yeriomin.yalpstore.task.DownloadTask</classname>
                <app>
                    <file>com.github.yeriomin.yalpstore_46.apk</file>
                    <hashes>
                        <hash type="MD5">c272033ebaecaae16521df057c559355</hash>
                        <hash type="SHA-1">f384d98be9b181dec7c68ca8684e050406670a0b</hash>
                        <hash type="SHA-256">37203e6764fc0525cdf3b2555884dfbece45585ddd072022ea563563fe2149be</hash>
                    </hashes>
                </app>
            </reference>
            <reference type="from">
                <statement>
                    <statementfull>$r4 = virtualinvoke $r3.&lt;android.content.pm.PackageManager: java.util.List getInstalledPackages(int)&gt;(0)</statementfull>
                    <statementgeneric>android.content.pm.PackageManager: java.util.List getInstalledPackages(int)</statementgeneric>
                    <parameters>
                        <parameter>
                            <type>int</type>
                            <value>0</value>
                        </parameter>
                    </parameters>
                </statement>
                <method>&lt;com.github.yeriomin.yalpstore.task.InstalledAppsTask: java.util.Map getInstalledApps(boolean)&gt;</method>
                <classname>com.github.yeriomin.yalpstore.task.InstalledAppsTask</classname>
                <app>
                    <file>com.github.yeriomin.yalpstore_46.apk</file>
                    <hashes>
                        <hash type="MD5">c272033ebaecaae16521df057c559355</hash>
                        <hash type="SHA-1">f384d98be9b181dec7c68ca8684e050406670a0b</hash>
                        <hash type="SHA-256">37203e6764fc0525cdf3b2555884dfbece45585ddd072022ea563563fe2149be</hash>
                    </hashes>
                </app>
            </reference>
        </flow>
        <flow generating_config="config_FlowDroid_layoutmodeall.xml">
            <reference type="to">
                <statement>
                    <statementfull>staticinvoke &lt;android.util.Log: int d(java.lang.String,java.lang.String)&gt;($r3, $r5)</statementfull>
                    <statementgeneric>android.util.Log: int d(java.lang.String,java.lang.String)</statementgeneric>
                    <parameters>
                        <parameter>
                            <type>java.lang.String</type>
                            <value>$r3</value>
                        </parameter>
                        <parameter>
                            <type>java.lang.String</type>
                            <value>$r5</value>
                        </parameter>
                    </parameters>
                </statement>
                <method>&lt;com.xlythe.calculator.material.GraphController: void layoutBeforeGraphing(com.xlythe.calculator.material.view.GraphView$Graph)&gt;</method>
                <classname>com.xlythe.calculator.material.GraphController</classname>
                <app>
                    <file>com.xlythe.calculator.material_93.apk</file>
                    <hashes>
                        <hash type="MD5">04fb8e4a4470af63e7ba2a2eee4ada1b</hash>
                        <hash type="SHA-1">a468be3a606644f104c4e86e73d79eb6f4b15bfc</hash>
                        <hash type="SHA-256">8d046eccd014110eb8f54000b4b85cd26ef38731eb9f4268699dd03657e05403</hash>
                    </hashes>
                </app>
            </reference>
            <reference type="from">
                <statement>
                    <statementfull>$r2 = virtualinvoke $r0.&lt;com.xlythe.calculator.material.BasicCalculator: android.view.View findViewById(int)&gt;(2131558511)</statementfull>
                    <statementgeneric>com.xlythe.calculator.material.BasicCalculator: android.view.View findViewById(int)</statementgeneric>
                    <parameters>
                        <parameter>
                            <type>int</type>
                            <value>2131558511</value>
                        </parameter>
                    </parameters>
                </statement>
                <method>&lt;com.xlythe.calculator.material.BasicCalculator: void initialize(android.os.Bundle)&gt;</method>
                <classname>com.xlythe.calculator.material.BasicCalculator</classname>
                <app>
                    <file>com.xlythe.calculator.material_93.apk</file>
                    <hashes>
                        <hash type="MD5">04fb8e4a4470af63e7ba2a2eee4ada1b</hash>
                        <hash type="SHA-1">a468be3a606644f104c4e86e73d79eb6f4b15bfc</hash>
                        <hash type="SHA-256">8d046eccd014110eb8f54000b4b85cd26ef38731eb9f4268699dd03657e05403</hash>
                    </hashes>
                </app>
            </reference>
        </flow>
        <flow generating_config="config_FlowDroid_cgalgogeom.xml">
            <reference type="to">
                <statement>
                    <statementfull>staticinvoke &lt;android.util.Log: int e(java.lang.String,java.lang.String)&gt;("Preview", $r5)</statementfull>
                    <statementgeneric>android.util.Log: int e(java.lang.String,java.lang.String)</statementgeneric>
                    <parameters>
                        <parameter>
                            <type>java.lang.String</type>
                            <value>"Preview"</value>
                        </parameter>
                        <parameter>
                            <type>java.lang.String</type>
                            <value>$r5</value>
                        </parameter>
                    </parameters>
                </statement>
                <method>&lt;net.sourceforge.opencamera.preview.Preview: void onAccelerometerSensorChanged(android.hardware.SensorEvent)&gt;</method>
                <classname>net.sourceforge.opencamera.preview.Preview</classname>
                <app>
                    <file>net.sourceforge.opencamera_74.apk</file>
                    <hashes>
                        <hash type="MD5">4bd4167f3d4d0ef1aacf9c06cb6b5230</hash>
                        <hash type="SHA-1">a2dd33c549252e76fa21d17e26a1c1443a044816</hash>
                        <hash type="SHA-256">e65cfe2c1a44b139649073bb9da0fb5397796068efe240a86e8558684efb9bf3</hash>
                    </hashes>
                </app>
            </reference>
            <reference type="from">
                <statement>
                    <statementfull>$d1 = virtualinvoke $r1.&lt;android.location.Location: double getLongitude()&gt;()</statementfull>
                    <statementgeneric>android.location.Location: double getLongitude()</statementgeneric>
                </statement>
                <method>&lt;net.sourceforge.opencamera.TextFormatter: java.lang.String getGPSString(java.lang.String,java.lang.String,boolean,android.location.Location,boolean,double)&gt;</method>
                <classname>net.sourceforge.opencamera.TextFormatter</classname>
                <app>
                    <file>net.sourceforge.opencamera_74.apk</file>
                    <hashes>
                        <hash type="MD5">4bd4167f3d4d0ef1aacf9c06cb6b5230</hash>
                        <hash type="SHA-1">a2dd33c549252e76fa21d17e26a1c1443a044816</hash>
                        <hash type="SHA-256">e65cfe2c1a44b139649073bb9da0fb5397796068efe240a86e8558684efb9bf3</hash>
                    </hashes>
                </app>
            </reference>
        </flow>
        <flow generating_config="config_FlowDroid_aliasalgof.xml">
            <reference type="to">
                <statement>
                    <statementfull>virtualinvoke $r5.&lt;android.os.Bundle: void putParcelable(java.lang.String,android.os.Parcelable)&gt;("intent", $r1)</statementfull>
                    <statementgeneric>android.os.Bundle: void putParcelable(java.lang.String,android.os.Parcelable)</statementgeneric>
                    <parameters>
                        <parameter>
                            <type>java.lang.String</type>
                            <value>"intent"</value>
                        </parameter>
                        <parameter>
                            <type>android.os.Parcelable</type>
                            <value>$r1</value>
                        </parameter>
                    </parameters>
                </statement>
                <method>&lt;org.fdroid.fdroid.views.ShareChooserDialog: void createChooser(android.support.design.widget.CoordinatorLayout,org.fdroid.fdroid.views.ShareChooserDialog$ShareChooserDialogListener,android.support.v7.app.AppCompatActivity,android.content.Intent,boolean)&gt;</method>
                <classname>org.fdroid.fdroid.views.ShareChooserDialog</classname>
                <app>
                    <file>org.fdroid.fdroid_1008001.apk</file>
                    <hashes>
                        <hash type="MD5">f48c6f2700a3c8b87f34525591bedab4</hash>
                        <hash type="SHA-1">5555067570b96a78e554aca72c0c9d1795189a17</hash>
                        <hash type="SHA-256">3e64fa1ea6f443a66fb1d6c3a02b4bc5f344ac7268701a58bad415e51a153799</hash>
                    </hashes>
                </app>
            </reference>
            <reference type="from">
                <statement>
                    <statementfull>$r3 = interfaceinvoke $r1.&lt;android.database.Cursor: java.lang.String getString(int)&gt;($i1)</statementfull>
                    <statementgeneric>android.database.Cursor: java.lang.String getString(int)</statementgeneric>
                    <parameters>
                        <parameter>
                            <type>int</type>
                            <value>$i1</value>
                        </parameter>
                    </parameters>
                </statement>
                <method>&lt;org.fdroid.fdroid.data.App: void &lt;init&gt;(android.database.Cursor)&gt;</method>
                <classname>org.fdroid.fdroid.data.App</classname>
                <app>
                    <file>org.fdroid.fdroid_1008001.apk</file>
                    <hashes>
                        <hash type="MD5">f48c6f2700a3c8b87f34525591bedab4</hash>
                        <hash type="SHA-1">5555067570b96a78e554aca72c0c9d1795189a17</hash>
                        <hash type="SHA-256">3e64fa1ea6f443a66fb1d6c3a02b4bc5f344ac7268701a58bad415e51a153799</hash>
                    </hashes>
                </app>
            </reference>
        </flow>
        <flow generating_config="config_FlowDroid_implicitall.xml">
            <reference type="to">
                <statement>
                    <statementfull>virtualinvoke $r3.&lt;android.os.Bundle: void putInt(java.lang.String,int)&gt;("cameraId", $i0)</statementfull>
                    <statementgeneric>android.os.Bundle: void putInt(java.lang.String,int)</statementgeneric>
                    <parameters>
                        <parameter>
                            <type>java.lang.String</type>
                            <value>"cameraId"</value>
                        </parameter>
                        <parameter>
                            <type>int</type>
                            <value>$i0</value>
                        </parameter>
                    </parameters>
                </statement>
                <method>&lt;net.sourceforge.opencamera.MainActivity: void openSettings()&gt;</method>
                <classname>net.sourceforge.opencamera.MainActivity</classname>
                <app>
                    <file>net.sourceforge.opencamera_74.apk</file>
                    <hashes>
                        <hash type="MD5">4bd4167f3d4d0ef1aacf9c06cb6b5230</hash>
                        <hash type="SHA-1">a2dd33c549252e76fa21d17e26a1c1443a044816</hash>
                        <hash type="SHA-256">e65cfe2c1a44b139649073bb9da0fb5397796068efe240a86e8558684efb9bf3</hash>
                    </hashes>
                </app>
            </reference>
            <reference type="from">
                <statement>
                    <statementfull>$i0 = virtualinvoke $r2.&lt;android.media.AudioRecord: int read(short[],int,int)&gt;($r3, 0, $i0)</statementfull>
                    <statementgeneric>android.media.AudioRecord: int read(short[],int,int)</statementgeneric>
                    <parameters>
                        <parameter>
                            <type>short[]</type>
                            <value>$r3</value>
                        </parameter>
                        <parameter>
                            <type>int</type>
                            <value>0</value>
                        </parameter>
                        <parameter>
                            <type>int</type>
                            <value>$i0</value>
                        </parameter>
                    </parameters>
                </statement>
                <method>&lt;net.sourceforge.opencamera.AudioListener$1: void run()&gt;</method>
                <classname>net.sourceforge.opencamera.AudioListener$1</classname>
                <app>
                    <file>net.sourceforge.opencamera_74.apk</file>
                    <hashes>
                        <hash type="MD5">4bd4167f3d4d0ef1aacf9c06cb6b5230</hash>
                        <hash type="SHA-1">a2dd33c549252e76fa21d17e26a1c1443a044816</hash>
                        <hash type="SHA-256">e65cfe2c1a44b139649073bb9da0fb5397796068efe240a86e8558684efb9bf3</hash>
                    </hashes>
                </app>
            </reference>
        </flow>
        <flow generating_config="config_FlowDroid_implicitall.xml">
            <reference type="to">
                <statement>
                    <statementfull>$r4 = virtualinvoke $r2.&lt;android.content.ContentResolver: android.database.Cursor query(android.net.Uri,java.lang.String[],java.lang.String,java.lang.String[],java.lang.String)&gt;($r3, null, null, null, null)</statementfull>
                    <statementgeneric>android.content.ContentResolver: android.database.Cursor query(android.net.Uri,java.lang.String[],java.lang.String,java.lang.String[],java.lang.String)</statementgeneric>
                    <parameters>
                        <parameter>
                            <type>android.net.Uri</type>
                            <value>$r3</value>
                        </parameter>
                        <parameter>
                            <type>java.lang.String[]</type>
                            <value>null</value>
                        </parameter>
                        <parameter>
                            <type>java.lang.String</type>
                            <value>null</value>
                        </parameter>
                        <parameter>
                            <type>java.lang.String[]</type>
                            <value>null</value>
                        </parameter>
                        <parameter>
                            <type>java.lang.String</type>
                            <value>null</value>
                        </parameter>
                    </parameters>
                </statement>
                <method>&lt;org.fdroid.fdroid.data.InstalledAppProvider$Helper: org.fdroid.fdroid.data.InstalledApp findByPackageName(android.content.Context,java.lang.String)&gt;</method>
                <classname>org.fdroid.fdroid.data.InstalledAppProvider$Helper</classname>
                <app>
                    <file>org.fdroid.fdroid_1008001.apk</file>
                    <hashes>
                        <hash type="MD5">f48c6f2700a3c8b87f34525591bedab4</hash>
                        <hash type="SHA-1">5555067570b96a78e554aca72c0c9d1795189a17</hash>
                        <hash type="SHA-256">3e64fa1ea6f443a66fb1d6c3a02b4bc5f344ac7268701a58bad415e51a153799</hash>
                    </hashes>
                </app>
            </reference>
            <reference type="from">
                <statement>
                    <statementfull>$r2 = interfaceinvoke $r1.&lt;android.database.Cursor: java.lang.String getString(int)&gt;($i0)</statementfull>
                    <statementgeneric>android.database.Cursor: java.lang.String getString(int)</statementgeneric>
                    <parameters>
                        <parameter>
                            <type>int</type>
                            <value>$i0</value>
                        </parameter>
                    </parameters>
                </statement>
                <method>&lt;org.fdroid.fdroid.data.InstalledApp: void &lt;init&gt;(android.database.Cursor)&gt;</method>
                <classname>org.fdroid.fdroid.data.InstalledApp</classname>
                <app>
                    <file>org.fdroid.fdroid_1008001.apk</file>
                    <hashes>
                        <hash type="MD5">f48c6f2700a3c8b87f34525591bedab4</hash>
                        <hash type="SHA-1">5555067570b96a78e554aca72c0c9d1795189a17</hash>
                        <hash type="SHA-256">3e64fa1ea6f443a66fb1d6c3a02b4bc5f344ac7268701a58bad415e51a153799</hash>
                    </hashes>
                </app>
            </reference>
        </flow>
        <flow generating_config="config_FlowDroid_layoutmodeall.xml">
            <reference type="to">
                <statement>
                    <statementfull>virtualinvoke $r1.&lt;android.os.Bundle: void putInt(java.lang.String,int)&gt;("Calculator_base", $i0)</statementfull>
                    <statementgeneric>android.os.Bundle: void putInt(java.lang.String,int)</statementgeneric>
                    <parameters>
                        <parameter>
                            <type>java.lang.String</type>
                            <value>"Calculator_base"</value>
                        </parameter>
                        <parameter>
                            <type>int</type>
                            <value>$i0</value>
                        </parameter>
                    </parameters>
                </statement>
                <method>&lt;com.xlythe.calculator.material.HexCalculator: void onSaveInstanceState(android.os.Bundle)&gt;</method>
                <classname>com.xlythe.calculator.material.HexCalculator</classname>
                <app>
                    <file>com.xlythe.calculator.material_93.apk</file>
                    <hashes>
                        <hash type="MD5">04fb8e4a4470af63e7ba2a2eee4ada1b</hash>
                        <hash type="SHA-1">a468be3a606644f104c4e86e73d79eb6f4b15bfc</hash>
                        <hash type="SHA-256">8d046eccd014110eb8f54000b4b85cd26ef38731eb9f4268699dd03657e05403</hash>
                    </hashes>
                </app>
            </reference>
            <reference type="from">
                <statement>
                    <statementfull>$r2 = virtualinvoke $r0.&lt;com.xlythe.calculator.material.BasicCalculator: android.view.View findViewById(int)&gt;(2131558538)</statementfull>
                    <statementgeneric>com.xlythe.calculator.material.BasicCalculator: android.view.View findViewById(int)</statementgeneric>
                    <parameters>
                        <parameter>
                            <type>int</type>
                            <value>2131558538</value>
                        </parameter>
                    </parameters>
                </statement>
                <method>&lt;com.xlythe.calculator.material.BasicCalculator: void initialize(android.os.Bundle)&gt;</method>
                <classname>com.xlythe.calculator.material.BasicCalculator</classname>
                <app>
                    <file>com.xlythe.calculator.material_93.apk</file>
                    <hashes>
                        <hash type="MD5">04fb8e4a4470af63e7ba2a2eee4ada1b</hash>
                        <hash type="SHA-1">a468be3a606644f104c4e86e73d79eb6f4b15bfc</hash>
                        <hash type="SHA-256">8d046eccd014110eb8f54000b4b85cd26ef38731eb9f4268699dd03657e05403</hash>
                    </hashes>
                </app>
            </reference>
        </flow>
        <flow generating_config="config_FlowDroid_callbackanalyzerfast.xml">
            <reference type="to">
                <statement>
                    <statementfull>interfaceinvoke $r3.&lt;android.content.SharedPreferences$Editor: android.content.SharedPreferences$Editor putString(java.lang.String,java.lang.String)&gt;($r4, $r1)</statementfull>
                    <statementgeneric>android.content.SharedPreferences$Editor: android.content.SharedPreferences$Editor putString(java.lang.String,java.lang.String)</statementgeneric>
                    <parameters>
                        <parameter>
                            <type>java.lang.String</type>
                            <value>$r4</value>
                        </parameter>
                        <parameter>
                            <type>java.lang.String</type>
                            <value>$r1</value>
                        </parameter>
                    </parameters>
                </statement>
                <method>&lt;net.sourceforge.opencamera.MyApplicationInterface: void setFocusPref(java.lang.String,boolean)&gt;</method>
                <classname>net.sourceforge.opencamera.MyApplicationInterface</classname>
                <app>
                    <file>net.sourceforge.opencamera_74.apk</file>
                    <hashes>
                        <hash type="MD5">4bd4167f3d4d0ef1aacf9c06cb6b5230</hash>
                        <hash type="SHA-1">a2dd33c549252e76fa21d17e26a1c1443a044816</hash>
                        <hash type="SHA-256">e65cfe2c1a44b139649073bb9da0fb5397796068efe240a86e8558684efb9bf3</hash>
                    </hashes>
                </app>
            </reference>
            <reference type="from">
                <statement>
                    <statementfull>$i0 = virtualinvoke $r2.&lt;android.media.AudioRecord: int read(short[],int,int)&gt;($r3, 0, $i0)</statementfull>
                    <statementgeneric>android.media.AudioRecord: int read(short[],int,int)</statementgeneric>
                    <parameters>
                        <parameter>
                            <type>short[]</type>
                            <value>$r3</value>
                        </parameter>
                        <parameter>
                            <type>int</type>
                            <value>0</value>
                        </parameter>
                        <parameter>
                            <type>int</type>
                            <value>$i0</value>
                        </parameter>
                    </parameters>
                </statement>
                <method>&lt;net.sourceforge.opencamera.AudioListener$1: void run()&gt;</method>
                <classname>net.sourceforge.opencamera.AudioListener$1</classname>
                <app>
                    <file>net.sourceforge.opencamera_74.apk</file>
                    <hashes>
                        <hash type="MD5">4bd4167f3d4d0ef1aacf9c06cb6b5230</hash>
                        <hash type="SHA-1">a2dd33c549252e76fa21d17e26a1c1443a044816</hash>
                        <hash type="SHA-256">e65cfe2c1a44b139649073bb9da0fb5397796068efe240a86e8558684efb9bf3</hash>
                    </hashes>
                </app>
            </reference>
        </flow>
        <flow generating_config="config_FlowDroid_implicitall.xml">
            <reference type="to">
                <statement>
                    <statementfull>staticinvoke &lt;android.util.Log: int e(java.lang.String,java.lang.String)&gt;("Preview", "camera not opened! returning default video profile for QUALITY_HIGH")</statementfull>
                    <statementgeneric>android.util.Log: int e(java.lang.String,java.lang.String)</statementgeneric>
                    <parameters>
                        <parameter>
                            <type>java.lang.String</type>
                            <value>"Preview"</value>
                        </parameter>
                        <parameter>
                            <type>java.lang.String</type>
                            <value>"camera not opened! returning default video profile for QUALITY_HIGH"</value>
                        </parameter>
                    </parameters>
                </statement>
                <method>&lt;net.sourceforge.opencamera.preview.Preview: net.sourceforge.opencamera.preview.VideoProfile getVideoProfile()&gt;</method>
                <classname>net.sourceforge.opencamera.preview.Preview</classname>
                <app>
                    <file>net.sourceforge.opencamera_74.apk</file>
                    <hashes>
                        <hash type="MD5">4bd4167f3d4d0ef1aacf9c06cb6b5230</hash>
                        <hash type="SHA-1">a2dd33c549252e76fa21d17e26a1c1443a044816</hash>
                        <hash type="SHA-256">e65cfe2c1a44b139649073bb9da0fb5397796068efe240a86e8558684efb9bf3</hash>
                    </hashes>
                </app>
            </reference>
            <reference type="from">
                <statement>
                    <statementfull>$i0 = virtualinvoke $r2.&lt;android.media.AudioRecord: int read(short[],int,int)&gt;($r3, 0, $i0)</statementfull>
                    <statementgeneric>android.media.AudioRecord: int read(short[],int,int)</statementgeneric>
                    <parameters>
                        <parameter>
                            <type>short[]</type>
                            <value>$r3</value>
                        </parameter>
                        <parameter>
                            <type>int</type>
                            <value>0</value>
                        </parameter>
                        <parameter>
                            <type>int</type>
                            <value>$i0</value>
                        </parameter>
                    </parameters>
                </statement>
                <method>&lt;net.sourceforge.opencamera.AudioListener$1: void run()&gt;</method>
                <classname>net.sourceforge.opencamera.AudioListener$1</classname>
                <app>
                    <file>net.sourceforge.opencamera_74.apk</file>
                    <hashes>
                        <hash type="MD5">4bd4167f3d4d0ef1aacf9c06cb6b5230</hash>
                        <hash type="SHA-1">a2dd33c549252e76fa21d17e26a1c1443a044816</hash>
                        <hash type="SHA-256">e65cfe2c1a44b139649073bb9da0fb5397796068efe240a86e8558684efb9bf3</hash>
                    </hashes>
                </app>
            </reference>
        </flow>
        <flow generating_config="config_FlowDroid_implicitall.xml">
            <reference type="to">
                <statement>
                    <statementfull>virtualinvoke $r8.&lt;android.content.Intent: android.content.Intent setAction(java.lang.String)&gt;("org.fdroid.fdroid.installer.action.INSTALL")</statementfull>
                    <statementgeneric>android.content.Intent: android.content.Intent setAction(java.lang.String)</statementgeneric>
                    <parameters>
                        <parameter>
                            <type>java.lang.String</type>
                            <value>"org.fdroid.fdroid.installer.action.INSTALL"</value>
                        </parameter>
                    </parameters>
                </statement>
                <method>&lt;org.fdroid.fdroid.installer.InstallManagerService: void queue(android.content.Context,org.fdroid.fdroid.data.App,org.fdroid.fdroid.data.Apk)&gt;</method>
                <classname>org.fdroid.fdroid.installer.InstallManagerService</classname>
                <app>
                    <file>org.fdroid.fdroid_1008001.apk</file>
                    <hashes>
                        <hash type="MD5">f48c6f2700a3c8b87f34525591bedab4</hash>
                        <hash type="SHA-1">5555067570b96a78e554aca72c0c9d1795189a17</hash>
                        <hash type="SHA-256">3e64fa1ea6f443a66fb1d6c3a02b4bc5f344ac7268701a58bad415e51a153799</hash>
                    </hashes>
                </app>
            </reference>
            <reference type="from">
                <statement>
                    <statementfull>$r2 = interfaceinvoke $r1.&lt;android.database.Cursor: java.lang.String getString(int)&gt;($i0)</statementfull>
                    <statementgeneric>android.database.Cursor: java.lang.String getString(int)</statementgeneric>
                    <parameters>
                        <parameter>
                            <type>int</type>
                            <value>$i0</value>
                        </parameter>
                    </parameters>
                </statement>
                <method>&lt;org.fdroid.fdroid.data.Apk: void &lt;init&gt;(android.database.Cursor)&gt;</method>
                <classname>org.fdroid.fdroid.data.Apk</classname>
                <app>
                    <file>org.fdroid.fdroid_1008001.apk</file>
                    <hashes>
                        <hash type="MD5">f48c6f2700a3c8b87f34525591bedab4</hash>